*----------------------------------------------------------------------
* SPICE Netlist Generated by TDK Corporation
* Copyright(C) 2020 TDK Corporation.
* All Rights Reserved.
*----------------------------------------------------------------------
* TDK P/N: C3225X7R1H475K250AB (Multilayer Ceramic Chip Capacitor)
* Property: C=4.7uF
* Size(LxWxT): 3.2x2.5x2.5mm
* Model Type: Precise Model
* Model Generated on Aug. 18, 2020
*----------------------------------------------------------------------
* Terms and conditions regarding TDK Simulation Models:
* 1)This simulation model is being provided solely for informational
*   purposes. Please refer to the specifications of the products in
*   terms of detailed characteristics of such products.
* 2)In no event shall TDK Corporation of any of its subsidiaries be
*   liable for any loss or damage arising, directly or indirectly,
*   from any information contained in this simulation model, including,
*   but not limited to loss or damages arising from any inaccuracies,
*   omissions or errors in connection with such information.
* 3)Any and all copyrights on this simulation model are owned by
*   TDK Corporation.  Duplication or redistribution of this simulation
*   model without prior written permission from TDK Corporation
*   is prohibited.
* 4)This simulation model is subject to any modification or change
*   without any prior notice.
* 5)Neither TDK Corporation nor any of its subsidiaries shall make any
*   warranty, express or implied, including but not limited to the
*   correctness, implied warranties of merchantability and fitness for
*   a particular purpose with respect to this simulation models.
* 6)The use of this simulation model shall be deemed to have consented
*   to the terms and conditions hereof.
*----------------------------------------------------------------------
* External Node Assignments:
*
*  n1 ---| |--- n2
*
*----------------------------------------------------------------------
* Applicable Conditions:
*   Temperature = 25 degC
*   DC Bias Voltage = 0 V
*   Small Signal Operation
*----------------------------------------------------------------------
.SUBCKT C3225X7R1H475K250AB_p n1 n2
C1 n1 11 4.55389393E-06
C2 n1 12 4.61007156E-08
C3 n1 13 4.61007156E-08
C4 n1 14 4.61007156E-08
C5 n1 15 4.61007156E-08
C6 n1 16 4.61007156E-08
C7 n1 17 4.61007156E-08
L1 n2 21 6.00000000E-10
R1 11 21 2.80810317E-03
R2 11 12 2.36156669E+01
R3 11 13 1.52000759E+02
R4 11 14 9.78151419E+02
R5 11 15 6.29336437E+03
R6 11 16 4.04834704E+04
R7 11 17 2.60370772E+05
R8 n1 11 1.06000000E+08
.ENDS C3225X7R1H475K250AB_p
*----------------------------------------------------------------------
